results/docking/redocking/STI_pose1.pdbqt
 OpenBabel09202618503D

 39 43  0  0  0  0  0  0  0  0999 V2000
   16.7660   52.0030   14.9420 N   0  0  0  0  0  0  0  0  0  0  0  0
   15.7160   51.6820   15.7870 C   0  0  0  0  0  0  0  0  0  0  0  0
   14.6460   52.2700   15.8130 O   0  0  0  0  0  0  0  0  0  0  0  0
   17.6320   51.5810   15.1480 H   0  0  0  0  0  0  0  0  0  0  0  0
   16.7470   52.8790   13.7970 C   0  0  0  0  0  0  0  0  0  0  0  0
   15.7770   54.7490   12.4460 C   0  0  0  0  0  0  0  0  0  0  0  0
   15.7510   53.9210   13.5970 C   0  0  0  0  0  0  0  0  0  0  0  0
   16.8170   54.5700   11.4250 C   0  0  0  0  0  0  0  0  0  0  0  0
   17.7980   53.5430   11.6290 C   0  0  0  0  0  0  0  0  0  0  0  0
   17.7570   52.7110   12.8060 C   0  0  0  0  0  0  0  0  0  0  0  0
   16.9050   55.4290   10.1420 C   0  0  0  0  0  0  0  0  0  0  0  0
   14.7970   55.7340   12.3050 N   0  0  0  0  0  0  0  0  0  0  0  0
   13.9020   55.4860   11.9750 H   0  0  0  0  0  0  0  0  0  0  0  0
   15.0690   57.0550   12.6220 C   0  0  0  0  0  0  0  0  0  0  0  0
   14.2820   59.3020   12.7130 C   0  0  0  0  0  0  0  0  0  0  0  0
   15.5460   59.7490   13.2240 C   0  0  0  0  0  0  0  0  0  0  0  0
   14.0920   57.9670   12.4340 N   0  0  0  0  0  0  0  0  0  0  0  0
   16.5500   58.7740   13.4130 C   0  0  0  0  0  0  0  0  0  0  0  0
   16.2990   57.4530   13.1120 N   0  0  0  0  0  0  0  0  0  0  0  0
   13.1220   60.2130   12.4550 C   0  0  0  0  0  0  0  0  0  0  0  0
   11.9690   62.4530   12.5730 C   0  0  0  0  0  0  0  0  0  0  0  0
   13.1150   61.6170   12.8460 C   0  0  0  0  0  0  0  0  0  0  0  0
   10.8360   61.8640   11.9090 C   0  0  0  0  0  0  0  0  0  0  0  0
   10.8550   60.5110   11.5370 N   0  0  0  0  0  0  0  0  0  0  0  0
   11.9440   59.6820   11.7850 C   0  0  0  0  0  0  0  0  0  0  0  0
   15.8850   50.5530   16.7520 C   0  0  0  0  0  0  0  0  0  0  0  0
   14.7310   50.0790   17.4850 C   0  0  0  0  0  0  0  0  0  0  0  0
   17.1890   49.9170   16.9570 C   0  0  0  0  0  0  0  0  0  0  0  0
   14.8640   49.0040   18.3910 C   0  0  0  0  0  0  0  0  0  0  0  0
   17.3210   48.8190   17.8810 C   0  0  0  0  0  0  0  0  0  0  0  0
   16.1440   48.3510   18.6100 C   0  0  0  0  0  0  0  0  0  0  0  0
   16.1880   47.1720   19.6000 C   0  0  0  0  0  0  0  0  0  0  0  0
   17.4920   46.8900   20.2700 N   0  0  0  0  0  0  0  0  0  0  0  0
   17.7390   47.8740   21.3860 C   0  0  0  0  0  0  0  0  0  0  0  0
   17.5640   45.4570   20.8060 C   0  0  0  0  0  0  0  0  0  0  0  0
   19.1030   47.6110   22.0840 C   0  0  0  0  0  0  0  0  0  0  0  0
   18.9440   45.1720   21.4840 C   0  0  0  0  0  0  0  0  0  0  0  0
   19.1760   46.1830   22.6080 N   0  0  0  0  0  0  0  0  0  0  0  0
   20.4460   45.8820   23.2850 C   0  0  0  0  0  0  0  0  0  0  0  0
  1  4  1  0  0  0  0
  1  2  1  0  0  0  0
  2  3  2  0  0  0  0
  2 26  1  0  0  0  0
  5  1  1  0  0  0  0
  6  7  2  0  0  0  0
  7  5  1  0  0  0  0
  8  9  2  0  0  0  0
  8  6  1  0  0  0  0
  9 10  1  0  0  0  0
 10  5  2  0  0  0  0
 11  8  1  0  0  0  0
 12  6  1  0  0  0  0
 12 14  1  0  0  0  0
 13 12  1  0  0  0  0
 14 19  1  0  0  0  0
 15 16  2  0  0  0  0
 16 18  1  0  0  0  0
 17 14  2  0  0  0  0
 17 15  1  0  0  0  0
 19 18  2  0  0  0  0
 20 15  1  0  0  0  0
 20 22  1  0  0  0  0
 21 22  2  0  0  0  0
 23 21  1  0  0  0  0
 24 25  1  0  0  0  0
 24 23  2  0  0  0  0
 25 20  2  0  0  0  0
 26 28  2  0  0  0  0
 26 27  1  0  0  0  0
 27 29  2  0  0  0  0
 28 30  1  0  0  0  0
 29 31  1  0  0  0  0
 30 31  2  0  0  0  0
 31 32  1  0  0  0  0
 32 33  1  0  0  0  0
 33 35  1  0  0  0  0
 33 34  1  0  0  0  0
 34 36  1  0  0  0  0
 35 37  1  0  0  0  0
 36 38  1  0  0  0  0
 37 38  1  0  0  0  0
 38 39  1  0  0  0  0
M  END
>  <MODEL>
1

>  <REMARK>
 VINA RESULT:   -12.933      0.000      0.000
 INTER + INTRA:         -18.727
 INTER:                 -18.225
 INTRA:                  -0.502
 UNBOUND:                -0.502
 SMILES Cc1ccc(NC(=O)c2ccc(CN3CCN(C)CC3)cc2)cc1Nc1nccc(-c2cccnc2)n1
 SMILES IDX 6 1 7 2 8 3 5 5 24 6 23 7 2 8 3 9 4 10 1 11 25 12 26 14
 SMILES IDX 30 15 29 16 37 17 28 18 27 19 31 20 33 21 32 22 34 23 35 24
 SMILES IDX 36 25 9 26 22 27 10 28 21 29 11 30 12 31 13 32 14 33 15 34
 SMILES IDX 20 35 16 36 19 37 17 38 18 39
 H PARENT 6 4 25 13

>  <TORSDO>
F 7

$$$$
