16722121
  -OEChem-11132409473D

 89 96  0     1  0  0  0  0  0999 V2000
    2.9274   -1.0319   -2.5593 O   0  0  0  0  0  0  0  0  0  0  0  0
    3.0362    1.1425    0.4086 O   0  0  0  0  0  0  0  0  0  0  0  0
   -1.8792   -2.7012   -2.1234 O   0  0  0  0  0  0  0  0  0  0  0  0
    0.6079   -0.9550    2.5960 O   0  0  0  0  0  0  0  0  0  0  0  0
    0.1619   -0.7988   -2.7413 O   0  0  0  0  0  0  0  0  0  0  0  0
    5.8698   -1.2562    0.6567 O   0  0  0  0  0  0  0  0  0  0  0  0
   -1.5814    1.7957    0.3381 O   0  0  0  0  0  0  0  0  0  0  0  0
    4.5921    1.1711    2.1687 O   0  0  0  0  0  0  0  0  0  0  0  0
    1.2213    1.2888    2.2055 O   0  0  0  0  0  0  0  0  0  0  0  0
   -4.2333    0.3494   -0.8864 O   0  0  0  0  0  0  0  0  0  0  0  0
   -4.1248   -2.5087    1.6391 O   0  0  0  0  0  0  0  0  0  0  0  0
   -2.3840   -3.7745    0.8003 O   0  0  0  0  0  0  0  0  0  0  0  0
   -1.9796    3.2146    2.1070 O   0  0  0  0  0  0  0  0  0  0  0  0
   -6.2545    0.8316    0.1233 O   0  0  0  0  0  0  0  0  0  0  0  0
    2.5648   -0.5464   -1.2611 C   0  0  1  0  0  0  0  0  0  0  0  0
    1.3659   -1.2574   -0.6158 C   0  0  1  0  0  0  0  0  0  0  0  0
    3.8733   -1.2128   -1.4973 C   0  0  2  0  0  0  0  0  0  0  0  0
    0.6185   -0.1939    0.3361 C   0  0  1  0  0  0  0  0  0  0  0  0
   -0.8436   -0.5468    0.7451 C   0  0  2  0  0  0  0  0  0  0  0  0
    4.9348   -0.1371   -1.3007 C   0  0  1  0  0  0  0  0  0  0  0  0
    2.8613    0.9057   -0.9932 C   0  0  2  0  0  0  0  0  0  0  0  0
   -1.5709   -1.1680   -0.4301 C   0  0  1  0  0  0  0  0  0  0  0  0
    0.4252   -1.8014   -1.7549 C   0  0  1  0  0  0  0  0  0  0  0  0
    4.1981    1.1560   -1.7032 C   0  0  0  0  0  0  0  0  0  0  0  0
   -0.8930   -2.2925   -1.1568 C   0  0  2  0  0  0  0  0  0  0  0  0
   -2.9812   -1.6691   -0.2370 C   0  0  1  0  0  0  0  0  0  0  0  0
    5.2763   -0.0423    0.1981 C   0  0  1  0  0  0  0  0  0  0  0  0
   -1.7338    0.6687    1.2004 C   0  0  2  0  0  0  0  0  0  0  0  0
    1.9483   -2.4925    0.1275 C   0  0  0  0  0  0  0  0  0  0  0  0
    1.2871   -0.0483    1.7116 C   0  0  2  0  0  0  0  0  0  0  0  0
    4.1341   -2.6390   -1.2075 C   0  0  0  0  0  0  0  0  0  0  0  0
   -0.6001   -1.4275    1.9721 C   0  0  0  0  0  0  0  0  0  0  0  0
    4.0592    0.3758    1.0747 C   0  0  2  0  0  0  0  0  0  0  0  0
   -3.8868   -0.5062    0.1997 C   0  0  1  0  0  0  0  0  0  0  0  0
   -3.2464    0.3298    1.3389 C   0  0  0  0  0  0  0  0  0  0  0  0
   -3.1944   -2.2911   -1.6295 C   0  0  0  0  0  0  0  0  0  0  0  0
    6.2447    1.0232    0.5754 C   0  0  0  0  0  0  0  0  0  0  0  0
   -3.1042   -2.7856    0.7786 C   0  0  0  0  0  0  0  0  0  0  0  0
    5.7963    1.6232    1.6721 C   0  0  0  0  0  0  0  0  0  0  0  0
   -1.7309    3.0148    0.9265 C   0  0  0  0  0  0  0  0  0  0  0  0
   -5.4521    0.9560   -0.7920 C   0  0  0  0  0  0  0  0  0  0  0  0
   -4.3536   -3.4881    2.6572 C   0  0  0  0  0  0  0  0  0  0  0  0
   -1.5502    4.0881   -0.0976 C   0  0  0  0  0  0  0  0  0  0  0  0
   -5.6793    1.8196   -1.9957 C   0  0  0  0  0  0  0  0  0  0  0  0
   -1.0367    5.4233    0.3538 C   0  0  0  0  0  0  0  0  0  0  0  0
   -1.9006    3.7641   -1.3559 C   0  0  0  0  0  0  0  0  0  0  0  0
   -1.8098    4.6300   -2.5722 C   0  0  0  0  0  0  0  0  0  0  0  0
    0.5703    0.7656   -0.1840 H   0  0  0  0  0  0  0  0  0  0  0  0
    5.8158   -0.3261   -1.9226 H   0  0  0  0  0  0  0  0  0  0  0  0
    2.0979    1.5834   -1.3867 H   0  0  0  0  0  0  0  0  0  0  0  0
   -1.6700   -0.3471   -1.1618 H   0  0  0  0  0  0  0  0  0  0  0  0
    0.8933   -2.6266   -2.3040 H   0  0  0  0  0  0  0  0  0  0  0  0
    4.0659    1.2032   -2.7908 H   0  0  0  0  0  0  0  0  0  0  0  0
    4.6992    2.0703   -1.3734 H   0  0  0  0  0  0  0  0  0  0  0  0
   -0.6729   -3.1588   -0.5309 H   0  0  0  0  0  0  0  0  0  0  0  0
   -1.3874    0.9606    2.2010 H   0  0  0  0  0  0  0  0  0  0  0  0
    2.0773   -3.3757   -0.4972 H   0  0  0  0  0  0  0  0  0  0  0  0
    2.7785   -2.2762    0.7949 H   0  0  0  0  0  0  0  0  0  0  0  0
    1.1994   -2.8824    0.8166 H   0  0  0  0  0  0  0  0  0  0  0  0
    2.2385   -0.4549    1.8518 H   0  0  0  0  0  0  0  0  0  0  0  0
    3.4853   -3.3286   -1.7567 H   0  0  0  0  0  0  0  0  0  0  0  0
    4.2958   -2.9301   -0.1698 H   0  0  0  0  0  0  0  0  0  0  0  0
    5.1131   -2.8569   -1.6621 H   0  0  0  0  0  0  0  0  0  0  0  0
   -0.4691   -2.4841    1.7459 H   0  0  0  0  0  0  0  0  0  0  0  0
   -1.3993   -1.3740    2.7176 H   0  0  0  0  0  0  0  0  0  0  0  0
    3.7940   -0.5778    1.5141 H   0  0  0  0  0  0  0  0  0  0  0  0
   -4.8449   -0.8961    0.5557 H   0  0  0  0  0  0  0  0  0  0  0  0
   -3.8119    1.2618    1.4564 H   0  0  0  0  0  0  0  0  0  0  0  0
   -3.3688   -0.2211    2.2785 H   0  0  0  0  0  0  0  0  0  0  0  0
   -3.5905   -1.5771   -2.3582 H   0  0  0  0  0  0  0  0  0  0  0  0
   -3.8445   -3.1720   -1.6221 H   0  0  0  0  0  0  0  0  0  0  0  0
    0.0534    0.0580   -2.2975 H   0  0  0  0  0  0  0  0  0  0  0  0
    7.1875    1.2248    0.0907 H   0  0  0  0  0  0  0  0  0  0  0  0
    6.6023   -1.4792    0.0567 H   0  0  0  0  0  0  0  0  0  0  0  0
    1.9683    1.4071    2.8163 H   0  0  0  0  0  0  0  0  0  0  0  0
    6.2739    2.3865    2.2594 H   0  0  0  0  0  0  0  0  0  0  0  0
   -5.1901   -3.1481    3.2735 H   0  0  0  0  0  0  0  0  0  0  0  0
   -3.4675   -3.5876    3.2913 H   0  0  0  0  0  0  0  0  0  0  0  0
   -4.6168   -4.4493    2.2056 H   0  0  0  0  0  0  0  0  0  0  0  0
   -5.5921    1.2198   -2.9052 H   0  0  0  0  0  0  0  0  0  0  0  0
   -6.6884    2.2395   -1.9550 H   0  0  0  0  0  0  0  0  0  0  0  0
   -4.9577    2.6397   -2.0045 H   0  0  0  0  0  0  0  0  0  0  0  0
   -1.8309    5.9803    0.8608 H   0  0  0  0  0  0  0  0  0  0  0  0
   -0.2108    5.2872    1.0606 H   0  0  0  0  0  0  0  0  0  0  0  0
   -0.6507    6.0366   -0.4634 H   0  0  0  0  0  0  0  0  0  0  0  0
   -2.3034    2.7798   -1.5872 H   0  0  0  0  0  0  0  0  0  0  0  0
   -1.5124    5.6585   -2.3603 H   0  0  0  0  0  0  0  0  0  0  0  0
   -1.0891    4.2033   -3.2767 H   0  0  0  0  0  0  0  0  0  0  0  0
   -2.7862    4.6673   -3.0665 H   0  0  0  0  0  0  0  0  0  0  0  0
  1 15  1  0  0  0  0
  1 17  1  0  0  0  0
  2 21  1  0  0  0  0
  2 33  1  0  0  0  0
  3 25  1  0  0  0  0
  3 36  1  0  0  0  0
  4 30  1  0  0  0  0
  4 32  1  0  0  0  0
  5 23  1  0  0  0  0
  5 72  1  0  0  0  0
  6 27  1  0  0  0  0
  6 74  1  0  0  0  0
  7 28  1  0  0  0  0
  7 40  1  0  0  0  0
  8 33  1  0  0  0  0
  8 39  1  0  0  0  0
  9 30  1  0  0  0  0
  9 75  1  0  0  0  0
 10 34  1  0  0  0  0
 10 41  1  0  0  0  0
 11 38  1  0  0  0  0
 11 42  1  0  0  0  0
 12 38  2  0  0  0  0
 13 40  2  0  0  0  0
 14 41  2  0  0  0  0
 15 16  1  0  0  0  0
 15 17  1  0  0  0  0
 15 21  1  0  0  0  0
 16 18  1  0  0  0  0
 16 23  1  0  0  0  0
 16 29  1  0  0  0  0
 17 20  1  0  0  0  0
 17 31  1  0  0  0  0
 18 19  1  0  0  0  0
 18 30  1  0  0  0  0
 18 48  1  0  0  0  0
 19 22  1  0  0  0  0
 19 28  1  0  0  0  0
 19 32  1  0  0  0  0
 20 24  1  0  0  0  0
 20 27  1  0  0  0  0
 20 49  1  0  0  0  0
 21 24  1  0  0  0  0
 21 50  1  0  0  0  0
 22 25  1  0  0  0  0
 22 26  1  0  0  0  0
 22 51  1  0  0  0  0
 23 25  1  0  0  0  0
 23 52  1  0  0  0  0
 24 53  1  0  0  0  0
 24 54  1  0  0  0  0
 25 55  1  0  0  0  0
 26 34  1  0  0  0  0
 26 36  1  0  0  0  0
 26 38  1  0  0  0  0
 27 33  1  0  0  0  0
 27 37  1  0  0  0  0
 28 35  1  0  0  0  0
 28 56  1  0  0  0  0
 29 57  1  0  0  0  0
 29 58  1  0  0  0  0
 29 59  1  0  0  0  0
 30 60  1  0  0  0  0
 31 61  1  0  0  0  0
 31 62  1  0  0  0  0
 31 63  1  0  0  0  0
 32 64  1  0  0  0  0
 32 65  1  0  0  0  0
 33 66  1  0  0  0  0
 34 35  1  0  0  0  0
 34 67  1  0  0  0  0
 35 68  1  0  0  0  0
 35 69  1  0  0  0  0
 36 70  1  0  0  0  0
 36 71  1  0  0  0  0
 37 39  2  0  0  0  0
 37 73  1  0  0  0  0
 39 76  1  0  0  0  0
 40 43  1  0  0  0  0
 41 44  1  0  0  0  0
 42 77  1  0  0  0  0
 42 78  1  0  0  0  0
 42 79  1  0  0  0  0
 43 45  1  0  0  0  0
 43 46  2  0  0  0  0
 44 80  1  0  0  0  0
 44 81  1  0  0  0  0
 44 82  1  0  0  0  0
 45 83  1  0  0  0  0
 45 84  1  0  0  0  0
 45 85  1  0  0  0  0
 46 47  1  0  0  0  0
 46 86  1  0  0  0  0
 47 87  1  0  0  0  0
 47 88  1  0  0  0  0
 47 89  1  0  0  0  0
M  END
> <PUBCHEM_COMPOUND_CID>
16722121

> <PUBCHEM_CONFORMER_RMSD>
1.2

> <PUBCHEM_CONFORMER_DIVERSEORDER>
2
1

> <PUBCHEM_MMFF94_PARTIAL_CHARGES>
47
1 -0.3
10 -0.43
11 -0.43
12 -0.57
13 -0.57
14 -0.57
15 -0.04
16 0.09
17 -0.04
2 -0.56
20 0.09
21 0.38
23 0.28
25 0.28
26 0.06
27 0.42
28 0.28
3 -0.56
30 0.56
31 0.09
32 0.28
33 0.56
34 0.28
36 0.28
37 -0.29
38 0.66
39 -0.07
4 -0.56
40 0.71
41 0.66
42 0.28
43 -0.12
44 0.06
45 0.14
46 -0.29
47 0.14
5 -0.68
6 -0.68
7 -0.43
72 0.4
73 0.15
74 0.4
75 0.4
76 0.15
8 -0.36
86 0.15
9 -0.68

> <PUBCHEM_EFFECTIVE_ROTOR_COUNT>
10.8

> <PUBCHEM_PHARMACOPHORE_FEATURES>
23
1 1 acceptor
1 12 acceptor
1 13 acceptor
1 14 acceptor
1 2 acceptor
1 3 acceptor
1 4 acceptor
1 45 hydrophobe
1 47 hydrophobe
1 5 acceptor
1 5 donor
1 6 acceptor
1 6 donor
1 8 acceptor
1 9 acceptor
1 9 donor
5 3 22 25 26 36 rings
5 4 18 19 30 32 rings
5 8 27 33 37 39 rings
6 1 15 17 20 21 24 rings
6 16 18 19 22 23 25 rings
6 19 22 26 28 34 35 rings
8 2 15 17 20 21 24 27 33 rings

> <PUBCHEM_HEAVY_ATOM_COUNT>
47

> <PUBCHEM_ATOM_DEF_STEREO_COUNT>
16

> <PUBCHEM_ATOM_UDEF_STEREO_COUNT>
0

> <PUBCHEM_BOND_DEF_STEREO_COUNT>
1

> <PUBCHEM_BOND_UDEF_STEREO_COUNT>
0

> <PUBCHEM_ISOTOPIC_ATOM_COUNT>
0

> <PUBCHEM_COMPONENT_COUNT>
1

> <PUBCHEM_CACTVS_TAUTO_COUNT>
1

> <PUBCHEM_CONFORMER_ID>
00FF28C900000002

> <PUBCHEM_MMFF94_ENERGY>
255.9818

> <PUBCHEM_FEATURE_SELFOVERLAP>
120.751

> <PUBCHEM_SHAPE_FINGERPRINT>
10439779 11 16894536274507060841
10675989 125 17831290611350490029
11578080 2 18202008681869173912
12422481 6 17914365504565568523
12788726 201 18265040354673665825
131258 38 15655843409683898608
14955137 171 18196666296545404065
15324884 4 18057033821280529139
15406563 5 18046599262722807664
18603816 31 12607137149876659068
19315092 285 16951958673468985256
19958102 18 18267020561676227877
21033648 144 18201719535310453991
21033648 29 18341618152292264063
23559900 14 18339094713362208422
24893989 43 16184303784283324453
3380486 145 18059576961827165651
469060 322 18056757856604869358
508706 21 18269569247067848668

> <PUBCHEM_SHAPE_MULTIPOLES>
885.07
11.92
5.12
2.61
6.91
5.36
-0.04
0.41
0.31
-6.13
-0.26
-0.09
-0.19
2.78

> <PUBCHEM_SHAPE_SELFOVERLAP>
1970.94

> <PUBCHEM_SHAPE_VOLUME>
460.5

> <PUBCHEM_COORDINATE_TYPE>
2
5
10

$$$$
