6443385
  -OEChem-11132409453D

 91 97  0     1  0  0  0  0  0999 V2000
   -3.3780   -0.1213    1.6204 O   0  0  0  0  0  0  0  0  0  0  0  0
   -3.3424    1.8550   -0.2319 O   0  0  0  0  0  0  0  0  0  0  0  0
    1.4105   -1.0406    3.0282 O   0  0  0  0  0  0  0  0  0  0  0  0
   -0.7637    0.4823    2.1283 O   0  0  0  0  0  0  0  0  0  0  0  0
   -6.8676    1.2023   -0.5830 O   0  0  0  0  0  0  0  0  0  0  0  0
   -4.8431    3.0088    1.1749 O   0  0  0  0  0  0  0  0  0  0  0  0
    1.6641    0.9717   -1.6520 O   0  0  0  0  0  0  0  0  0  0  0  0
   -1.1506   -2.5034   -2.3005 O   0  0  0  0  0  0  0  0  0  0  0  0
    3.7212    1.1249    0.4959 O   0  0  0  0  0  0  0  0  0  0  0  0
    4.5650   -2.6222    0.4705 O   0  0  0  0  0  0  0  0  0  0  0  0
    2.7485   -3.4672    1.6208 O   0  0  0  0  0  0  0  0  0  0  0  0
   -0.2835    0.8536   -3.1912 O   0  0  0  0  0  0  0  0  0  0  0  0
    0.2786   -1.1711   -4.1416 O   0  0  0  0  0  0  0  0  0  0  0  0
    5.9067    1.4144   -0.1678 O   0  0  0  0  0  0  0  0  0  0  0  0
   -2.7589   -0.3875    0.3679 C   0  0  2  0  0  0  0  0  0  0  0  0
   -4.0869   -0.9835    0.7297 C   0  0  2  0  0  0  0  0  0  0  0  0
   -1.4546   -1.2006    0.4317 C   0  0  1  0  0  0  0  0  0  0  0  0
   -5.0951   -0.3880   -0.2342 C   0  0  2  0  0  0  0  0  0  0  0  0
   -3.0291    0.5662   -0.7661 C   0  0  1  0  0  0  0  0  0  0  0  0
   -0.5097   -0.7752   -0.7963 C   0  0  1  0  0  0  0  0  0  0  0  0
    1.0161   -1.2291   -0.6941 C   0  0  2  0  0  0  0  0  0  0  0  0
   -4.2223   -0.0874   -1.4691 C   0  0  0  0  0  0  0  0  0  0  0  0
   -0.7707   -0.9181    1.8260 C   0  0  1  0  0  0  0  0  0  0  0  0
    1.4610   -0.8700    0.7225 C   0  0  1  0  0  0  0  0  0  0  0  0
    0.6649   -1.4429    1.8611 C   0  0  1  0  0  0  0  0  0  0  0  0
   -5.6924    0.9577    0.2016 C   0  0  1  0  0  0  0  0  0  0  0  0
    2.8986   -1.1011    1.1320 C   0  0  1  0  0  0  0  0  0  0  0  0
   -4.2156   -2.3848    1.1806 C   0  0  0  0  0  0  0  0  0  0  0  0
   -1.8741   -2.6904    0.3914 C   0  0  0  0  0  0  0  0  0  0  0  0
    1.9754   -0.4243   -1.6539 C   0  0  2  0  0  0  0  0  0  0  0  0
   -4.7261    2.1616   -0.0007 C   0  0  2  0  0  0  0  0  0  0  0  0
   -1.1218   -1.0967   -2.1722 C   0  0  1  0  0  0  0  0  0  0  0  0
    3.8125   -0.2705    0.2163 C   0  0  1  0  0  0  0  0  0  0  0  0
    1.1958   -2.7259   -1.0358 C   0  0  0  0  0  0  0  0  0  0  0  0
    2.7730   -0.7081    2.6132 C   0  0  0  0  0  0  0  0  0  0  0  0
    3.4827   -0.5332   -1.2781 C   0  0  0  0  0  0  0  0  0  0  0  0
   -6.0765    1.1154    1.6257 C   0  0  0  0  0  0  0  0  0  0  0  0
    3.3682   -2.5394    1.1186 C   0  0  0  0  0  0  0  0  0  0  0  0
   -0.2825   -0.5091   -3.2781 C   0  0  0  0  0  0  0  0  0  0  0  0
   -5.5749    2.2613    2.0695 C   0  0  0  0  0  0  0  0  0  0  0  0
    4.8482    1.8545    0.2575 C   0  0  0  0  0  0  0  0  0  0  0  0
    5.1281   -3.9350    0.3844 C   0  0  0  0  0  0  0  0  0  0  0  0
    0.4451    1.5378   -4.2156 C   0  0  0  0  0  0  0  0  0  0  0  0
    4.6006    3.2877    0.6016 C   0  0  0  0  0  0  0  0  0  0  0  0
    3.5865    3.6001    1.6618 C   0  0  0  0  0  0  0  0  0  0  0  0
    5.3024    4.1914   -0.1068 C   0  0  0  0  0  0  0  0  0  0  0  0
    5.2666    5.6799    0.0371 C   0  0  0  0  0  0  0  0  0  0  0  0
   -5.8785   -1.1089   -0.4951 H   0  0  0  0  0  0  0  0  0  0  0  0
   -2.2357    0.8231   -1.4504 H   0  0  0  0  0  0  0  0  0  0  0  0
   -0.4481    0.3181   -0.7172 H   0  0  0  0  0  0  0  0  0  0  0  0
   -4.7162    0.5710   -2.1907 H   0  0  0  0  0  0  0  0  0  0  0  0
   -3.9927   -1.0373   -1.9609 H   0  0  0  0  0  0  0  0  0  0  0  0
   -1.3339   -1.3807    2.6449 H   0  0  0  0  0  0  0  0  0  0  0  0
    1.3357    0.2245    0.7886 H   0  0  0  0  0  0  0  0  0  0  0  0
    0.6270   -2.5352    1.8518 H   0  0  0  0  0  0  0  0  0  0  0  0
   -3.6743   -2.6247    2.0995 H   0  0  0  0  0  0  0  0  0  0  0  0
   -5.2514   -2.4538    1.5536 H   0  0  0  0  0  0  0  0  0  0  0  0
   -4.2336   -3.1594    0.4116 H   0  0  0  0  0  0  0  0  0  0  0  0
   -1.0201   -3.3014    0.1196 H   0  0  0  0  0  0  0  0  0  0  0  0
   -2.5686   -2.9268   -0.4153 H   0  0  0  0  0  0  0  0  0  0  0  0
   -2.0733   -3.1402    1.3628 H   0  0  0  0  0  0  0  0  0  0  0  0
    1.9431   -0.7897   -2.6770 H   0  0  0  0  0  0  0  0  0  0  0  0
   -5.0506    2.7748   -0.8507 H   0  0  0  0  0  0  0  0  0  0  0  0
   -2.1230   -0.7911   -2.4051 H   0  0  0  0  0  0  0  0  0  0  0  0
    4.8591   -0.5356    0.3986 H   0  0  0  0  0  0  0  0  0  0  0  0
    0.7581   -3.4190   -0.3252 H   0  0  0  0  0  0  0  0  0  0  0  0
    0.9149   -2.9907   -2.0548 H   0  0  0  0  0  0  0  0  0  0  0  0
    2.2570   -2.9901   -1.0371 H   0  0  0  0  0  0  0  0  0  0  0  0
    3.4692   -1.2349    3.2739 H   0  0  0  0  0  0  0  0  0  0  0  0
    2.8947    0.3674    2.7762 H   0  0  0  0  0  0  0  0  0  0  0  0
    4.0465    0.1822   -1.8906 H   0  0  0  0  0  0  0  0  0  0  0  0
    3.8396   -1.5259   -1.5702 H   0  0  0  0  0  0  0  0  0  0  0  0
   -6.6936    0.4377    2.1951 H   0  0  0  0  0  0  0  0  0  0  0  0
   -0.5348    0.9789    1.3265 H   0  0  0  0  0  0  0  0  0  0  0  0
   -7.4960    0.4783   -0.4173 H   0  0  0  0  0  0  0  0  0  0  0  0
   -5.6891    2.7046    3.0425 H   0  0  0  0  0  0  0  0  0  0  0  0
    2.3134    1.4277   -2.2133 H   0  0  0  0  0  0  0  0  0  0  0  0
   -1.5781   -2.7186   -3.1472 H   0  0  0  0  0  0  0  0  0  0  0  0
    5.3218   -4.3302    1.3861 H   0  0  0  0  0  0  0  0  0  0  0  0
    4.4578   -4.5981   -0.1707 H   0  0  0  0  0  0  0  0  0  0  0  0
    6.0764   -3.8629   -0.1547 H   0  0  0  0  0  0  0  0  0  0  0  0
    1.4141    1.0682   -4.4113 H   0  0  0  0  0  0  0  0  0  0  0  0
   -0.1540    1.5615   -5.1304 H   0  0  0  0  0  0  0  0  0  0  0  0
    0.6159    2.5654   -3.8832 H   0  0  0  0  0  0  0  0  0  0  0  0
    3.6697    4.6180    2.0493 H   0  0  0  0  0  0  0  0  0  0  0  0
    3.7177    2.9317    2.5201 H   0  0  0  0  0  0  0  0  0  0  0  0
    2.5725    3.4652    1.2717 H   0  0  0  0  0  0  0  0  0  0  0  0
    6.0002    3.8451   -0.8678 H   0  0  0  0  0  0  0  0  0  0  0  0
    5.0733    6.1351   -0.9398 H   0  0  0  0  0  0  0  0  0  0  0  0
    6.2366    6.0407    0.3931 H   0  0  0  0  0  0  0  0  0  0  0  0
    4.4956    6.0387    0.7212 H   0  0  0  0  0  0  0  0  0  0  0  0
  1 15  1  0  0  0  0
  1 16  1  0  0  0  0
  2 19  1  0  0  0  0
  2 31  1  0  0  0  0
  3 25  1  0  0  0  0
  3 35  1  0  0  0  0
  4 23  1  0  0  0  0
  4 74  1  0  0  0  0
  5 26  1  0  0  0  0
  5 75  1  0  0  0  0
  6 31  1  0  0  0  0
  6 40  1  0  0  0  0
  7 30  1  0  0  0  0
  7 77  1  0  0  0  0
  8 32  1  0  0  0  0
  8 78  1  0  0  0  0
  9 33  1  0  0  0  0
  9 41  1  0  0  0  0
 10 38  1  0  0  0  0
 10 42  1  0  0  0  0
 11 38  2  0  0  0  0
 12 39  1  0  0  0  0
 12 43  1  0  0  0  0
 13 39  2  0  0  0  0
 14 41  2  0  0  0  0
 15 16  1  0  0  0  0
 15 17  1  0  0  0  0
 15 19  1  0  0  0  0
 16 18  1  0  0  0  0
 16 28  1  0  0  0  0
 17 20  1  0  0  0  0
 17 23  1  0  0  0  0
 17 29  1  0  0  0  0
 18 22  1  0  0  0  0
 18 26  1  0  0  0  0
 18 48  1  0  0  0  0
 19 22  1  0  0  0  0
 19 49  1  0  0  0  0
 20 21  1  0  0  0  0
 20 32  1  0  0  0  0
 20 50  1  0  0  0  0
 21 24  1  0  0  0  0
 21 30  1  0  0  0  0
 21 34  1  0  0  0  0
 22 51  1  0  0  0  0
 22 52  1  0  0  0  0
 23 25  1  0  0  0  0
 23 53  1  0  0  0  0
 24 25  1  0  0  0  0
 24 27  1  0  0  0  0
 24 54  1  0  0  0  0
 25 55  1  0  0  0  0
 26 31  1  0  0  0  0
 26 37  1  0  0  0  0
 27 33  1  0  0  0  0
 27 35  1  0  0  0  0
 27 38  1  0  0  0  0
 28 56  1  0  0  0  0
 28 57  1  0  0  0  0
 28 58  1  0  0  0  0
 29 59  1  0  0  0  0
 29 60  1  0  0  0  0
 29 61  1  0  0  0  0
 30 36  1  0  0  0  0
 30 62  1  0  0  0  0
 31 63  1  0  0  0  0
 32 39  1  0  0  0  0
 32 64  1  0  0  0  0
 33 36  1  0  0  0  0
 33 65  1  0  0  0  0
 34 66  1  0  0  0  0
 34 67  1  0  0  0  0
 34 68  1  0  0  0  0
 35 69  1  0  0  0  0
 35 70  1  0  0  0  0
 36 71  1  0  0  0  0
 36 72  1  0  0  0  0
 37 40  2  0  0  0  0
 37 73  1  0  0  0  0
 40 76  1  0  0  0  0
 41 44  1  0  0  0  0
 42 79  1  0  0  0  0
 42 80  1  0  0  0  0
 42 81  1  0  0  0  0
 43 82  1  0  0  0  0
 43 83  1  0  0  0  0
 43 84  1  0  0  0  0
 44 45  1  0  0  0  0
 44 46  2  0  0  0  0
 45 85  1  0  0  0  0
 45 86  1  0  0  0  0
 45 87  1  0  0  0  0
 46 47  1  0  0  0  0
 46 88  1  0  0  0  0
 47 89  1  0  0  0  0
 47 90  1  0  0  0  0
 47 91  1  0  0  0  0
M  END
> <PUBCHEM_COMPOUND_CID>
6443385

> <PUBCHEM_CONFORMER_RMSD>
1.2

> <PUBCHEM_CONFORMER_DIVERSEORDER>
1

> <PUBCHEM_MMFF94_PARTIAL_CHARGES>
47
1 -0.3
10 -0.43
11 -0.57
12 -0.43
13 -0.57
14 -0.57
15 -0.04
16 -0.04
17 0.09
18 0.09
19 0.38
2 -0.56
23 0.28
25 0.28
26 0.42
27 0.06
28 0.09
3 -0.56
30 0.28
31 0.56
32 0.34
33 0.28
35 0.28
37 -0.29
38 0.66
39 0.66
4 -0.68
40 -0.07
41 0.71
42 0.28
43 0.28
44 -0.12
45 0.14
46 -0.29
47 0.14
5 -0.68
6 -0.36
7 -0.68
73 0.15
74 0.4
75 0.4
76 0.15
77 0.4
78 0.4
8 -0.68
88 0.15
9 -0.43

> <PUBCHEM_EFFECTIVE_ROTOR_COUNT>
11.4

> <PUBCHEM_PHARMACOPHORE_FEATURES>
22
1 1 acceptor
1 11 acceptor
1 13 acceptor
1 14 acceptor
1 2 acceptor
1 3 acceptor
1 4 acceptor
1 4 donor
1 45 hydrophobe
1 47 hydrophobe
1 5 acceptor
1 5 donor
1 6 acceptor
1 7 acceptor
1 7 donor
1 8 acceptor
1 8 donor
5 3 24 25 27 35 rings
5 6 26 31 37 40 rings
6 17 20 21 23 24 25 rings
6 21 24 27 30 33 36 rings
9 1 2 15 16 18 19 22 26 31 rings

> <PUBCHEM_HEAVY_ATOM_COUNT>
47

> <PUBCHEM_ATOM_DEF_STEREO_COUNT>
16

> <PUBCHEM_ATOM_UDEF_STEREO_COUNT>
0

> <PUBCHEM_BOND_DEF_STEREO_COUNT>
1

> <PUBCHEM_BOND_UDEF_STEREO_COUNT>
0

> <PUBCHEM_ISOTOPIC_ATOM_COUNT>
0

> <PUBCHEM_COMPONENT_COUNT>
1

> <PUBCHEM_CACTVS_TAUTO_COUNT>
1

> <PUBCHEM_CONFORMER_ID>
0062517900000001

> <PUBCHEM_MMFF94_ENERGY>
262.2862

> <PUBCHEM_FEATURE_SELFOVERLAP>
111.954

> <PUBCHEM_SHAPE_FINGERPRINT>
10369192 42 17973159823335255808
11093857 51 15913336818571141252
11578080 2 18336270153451363402
12422481 6 17096653093872170999
12553582 1 15574720161944910795
12608794 3 17971160765262374554
12988421 55 17682652350339617608
13726171 33 17702679876591356713
13782708 43 16952248703768141258
13911987 19 16917078801528908973
14747281 78 17916046615295730441
15297060 5 17678202536502961684
15324884 4 14331984101194014678
15840311 113 18187931638856957169
17492 54 16343708754545865958
18393751 57 17463404272572196610
19302320 297 18054524503982131049
19309040 13 18341614883980348616
20642791 268 17822579403312548623
21033648 29 17676212398222110873
22122407 14 18342183279614652872
22393880 68 14836110040953151053
23559900 14 18338514132082876858
23569914 152 10157483444034979377
27425 322 18341615872244579455
3493558 16 18408891732461772120
392239 28 17531240703515557292
4112364 45 18412266146510901441
44802255 64 17414733260861560260
469060 322 16299213765190174862
484985 159 9436086292949890544
57527293 21 18202290238461202355
57527358 35 18411421725891853259
57724786 102 18341612585866461650
5951187 136 18056777441756205969

> <PUBCHEM_SHAPE_MULTIPOLES>
885.07
13.5
4.76
3.2
6.46
4.01
3.12
11.57
-5.03
-8.67
-1.39
0.15
-0.31
-1.14

> <PUBCHEM_SHAPE_SELFOVERLAP>
1953.71

> <PUBCHEM_SHAPE_VOLUME>
468.7

> <PUBCHEM_COORDINATE_TYPE>
2
5
10

$$$$
