76309325
  -OEChem-11132409483D

 86 93  0     1  0  0  0  0  0999 V2000
   -1.7155    1.3231    1.3465 O   0  0  0  0  0  0  0  0  0  0  0  0
   -4.1151    0.4194   -1.2868 O   0  0  0  0  0  0  0  0  0  0  0  0
    0.7639   -3.1418    1.6436 O   0  0  0  0  0  0  0  0  0  0  0  0
   -0.1402   -0.6054   -3.2492 O   0  0  0  0  0  0  0  0  0  0  0  0
   -0.3664   -0.5593    2.0250 O   0  0  0  0  0  0  0  0  0  0  0  0
    2.6700    1.0093   -0.4482 O   0  0  0  0  0  0  0  0  0  0  0  0
   -5.5881   -0.6872    1.9549 O   0  0  0  0  0  0  0  0  0  0  0  0
   -1.6399    1.1452   -2.6841 O   0  0  0  0  0  0  0  0  0  0  0  0
   -6.2306   -0.5812   -1.1065 O   0  0  0  0  0  0  0  0  0  0  0  0
    4.1541   -1.0588    0.9455 O   0  0  0  0  0  0  0  0  0  0  0  0
    3.8904    2.2701   -1.9388 O   0  0  0  0  0  0  0  0  0  0  0  0
    6.3993   -1.2847    0.4504 O   0  0  0  0  0  0  0  0  0  0  0  0
   -2.2875    0.5887    0.2833 C   0  0  1  0  0  0  0  0  0  0  0  0
   -1.3703   -0.5288   -0.2393 C   0  0  1  0  0  0  0  0  0  0  0  0
   -2.9021    0.5507    1.6148 C   0  0  2  0  0  0  0  0  0  0  0  0
   -0.1216    0.1440   -1.0064 C   0  0  1  0  0  0  0  0  0  0  0  0
    1.1245   -0.7696   -1.2195 C   0  0  2  0  0  0  0  0  0  0  0  0
   -4.2389    1.2743    1.4386 C   0  0  1  0  0  0  0  0  0  0  0  0
   -3.1794    1.3018   -0.6566 C   0  0  2  0  0  0  0  0  0  0  0  0
    1.3558   -1.6167    0.0146 C   0  0  1  0  0  0  0  0  0  0  0  0
   -0.9015   -1.3958    0.9936 C   0  0  1  0  0  0  0  0  0  0  0  0
    0.1867   -2.3795    0.5645 C   0  0  2  0  0  0  0  0  0  0  0  0
   -3.9497    2.2491    0.2751 C   0  0  0  0  0  0  0  0  0  0  0  0
    2.4899   -2.6240    0.0334 C   0  0  1  0  0  0  0  0  0  0  0  0
   -5.3184    0.2881    0.9495 C   0  0  1  0  0  0  0  0  0  0  0  0
    2.4761    0.0053   -1.4468 C   0  0  2  0  0  0  0  0  0  0  0  0
   -2.2560   -1.4420   -1.1295 C   0  0  0  0  0  0  0  0  0  0  0  0
   -0.3683    0.5713   -2.4608 C   0  0  1  0  0  0  0  0  0  0  0  0
    0.7454   -1.4818   -2.5233 C   0  0  0  0  0  0  0  0  0  0  0  0
   -2.6953   -0.5016    2.6440 C   0  0  0  0  0  0  0  0  0  0  0  0
    3.8163   -1.8638   -0.1839 C   0  0  1  0  0  0  0  0  0  0  0  0
   -4.9678   -0.3560   -0.4215 C   0  0  2  0  0  0  0  0  0  0  0  0
    2.2084   -3.2111    1.4323 C   0  0  0  0  0  0  0  0  0  0  0  0
    3.7278   -0.9204   -1.4134 C   0  0  0  0  0  0  0  0  0  0  0  0
    2.3905   -3.7686   -0.9967 C   0  0  0  0  0  0  0  0  0  0  0  0
   -6.6490    0.8747    0.6235 C   0  0  0  0  0  0  0  0  0  0  0  0
   -7.0773    0.3284   -0.5086 C   0  0  0  0  0  0  0  0  0  0  0  0
    3.4000    2.0933   -0.8328 C   0  0  0  0  0  0  0  0  0  0  0  0
    5.4885   -0.8505    1.1428 C   0  0  0  0  0  0  0  0  0  0  0  0
    3.5208    3.0454    0.3128 C   0  0  0  0  0  0  0  0  0  0  0  0
    5.6915    0.0055    2.3562 C   0  0  0  0  0  0  0  0  0  0  0  0
    2.8325    2.7011    1.6003 C   0  0  0  0  0  0  0  0  0  0  0  0
    4.2264    4.1660    0.0732 C   0  0  0  0  0  0  0  0  0  0  0  0
    4.5199    5.2739    1.0344 C   0  0  0  0  0  0  0  0  0  0  0  0
    0.1552    1.0328   -0.4258 H   0  0  0  0  0  0  0  0  0  0  0  0
   -4.5324    1.7985    2.3540 H   0  0  0  0  0  0  0  0  0  0  0  0
   -2.7412    2.0109   -1.3451 H   0  0  0  0  0  0  0  0  0  0  0  0
    1.6236   -0.8858    0.7978 H   0  0  0  0  0  0  0  0  0  0  0  0
   -1.6670   -2.0672    1.3703 H   0  0  0  0  0  0  0  0  0  0  0  0
   -0.2184   -3.1032   -0.1483 H   0  0  0  0  0  0  0  0  0  0  0  0
   -4.8503    2.6684   -0.1826 H   0  0  0  0  0  0  0  0  0  0  0  0
   -3.3199    3.0802    0.6174 H   0  0  0  0  0  0  0  0  0  0  0  0
    2.4397    0.4801   -2.4357 H   0  0  0  0  0  0  0  0  0  0  0  0
   -2.9538   -2.0293   -0.5394 H   0  0  0  0  0  0  0  0  0  0  0  0
   -1.6371   -2.2330   -1.5602 H   0  0  0  0  0  0  0  0  0  0  0  0
   -2.7030   -0.9961   -2.0141 H   0  0  0  0  0  0  0  0  0  0  0  0
    0.3770    1.3183   -2.7592 H   0  0  0  0  0  0  0  0  0  0  0  0
    1.5999   -1.6837   -3.1751 H   0  0  0  0  0  0  0  0  0  0  0  0
    0.2329   -2.4333   -2.3728 H   0  0  0  0  0  0  0  0  0  0  0  0
   -1.8628   -0.4303    3.3440 H   0  0  0  0  0  0  0  0  0  0  0  0
   -3.0325   -1.5044    2.3777 H   0  0  0  0  0  0  0  0  0  0  0  0
   -3.4766   -0.2651    3.3889 H   0  0  0  0  0  0  0  0  0  0  0  0
    4.6092   -2.6043   -0.3523 H   0  0  0  0  0  0  0  0  0  0  0  0
   -4.5913   -1.3570   -0.2534 H   0  0  0  0  0  0  0  0  0  0  0  0
    2.6694   -2.6281    2.2362 H   0  0  0  0  0  0  0  0  0  0  0  0
    2.5278   -4.2521    1.5425 H   0  0  0  0  0  0  0  0  0  0  0  0
    3.7318   -1.5316   -2.3227 H   0  0  0  0  0  0  0  0  0  0  0  0
    4.6326   -0.3027   -1.4547 H   0  0  0  0  0  0  0  0  0  0  0  0
    3.1766   -4.5106   -0.8106 H   0  0  0  0  0  0  0  0  0  0  0  0
    1.4372   -4.3029   -0.9454 H   0  0  0  0  0  0  0  0  0  0  0  0
    2.5232   -3.4272   -2.0249 H   0  0  0  0  0  0  0  0  0  0  0  0
    0.0904   -1.1347    2.6631 H   0  0  0  0  0  0  0  0  0  0  0  0
   -7.2067    1.5638    1.2387 H   0  0  0  0  0  0  0  0  0  0  0  0
   -5.8040   -0.2189    2.7798 H   0  0  0  0  0  0  0  0  0  0  0  0
   -1.5736    1.6940   -3.4839 H   0  0  0  0  0  0  0  0  0  0  0  0
   -8.0245    0.4615   -0.9994 H   0  0  0  0  0  0  0  0  0  0  0  0
    5.6063    1.0585    2.0808 H   0  0  0  0  0  0  0  0  0  0  0  0
    6.6864   -0.1855    2.7683 H   0  0  0  0  0  0  0  0  0  0  0  0
    4.9583   -0.2465    3.1274 H   0  0  0  0  0  0  0  0  0  0  0  0
    1.7544    2.5940    1.4359 H   0  0  0  0  0  0  0  0  0  0  0  0
    3.2138    1.7566    2.0007 H   0  0  0  0  0  0  0  0  0  0  0  0
    2.9589    3.4527    2.3813 H   0  0  0  0  0  0  0  0  0  0  0  0
    4.6691    4.3253   -0.9085 H   0  0  0  0  0  0  0  0  0  0  0  0
    4.0700    6.2034    0.6717 H   0  0  0  0  0  0  0  0  0  0  0  0
    5.6027    5.4244    1.0962 H   0  0  0  0  0  0  0  0  0  0  0  0
    4.1568    5.0969    2.0476 H   0  0  0  0  0  0  0  0  0  0  0  0
  1 13  1  0  0  0  0
  1 15  1  0  0  0  0
  2 19  1  0  0  0  0
  2 32  1  0  0  0  0
  3 22  1  0  0  0  0
  3 33  1  0  0  0  0
  4 28  1  0  0  0  0
  4 29  1  0  0  0  0
  5 21  1  0  0  0  0
  5 72  1  0  0  0  0
  6 26  1  0  0  0  0
  6 38  1  0  0  0  0
  7 25  1  0  0  0  0
  7 74  1  0  0  0  0
  8 28  1  0  0  0  0
  8 75  1  0  0  0  0
  9 32  1  0  0  0  0
  9 37  1  0  0  0  0
 10 31  1  0  0  0  0
 10 39  1  0  0  0  0
 11 38  2  0  0  0  0
 12 39  2  0  0  0  0
 13 14  1  0  0  0  0
 13 15  1  0  0  0  0
 13 19  1  0  0  0  0
 14 16  1  0  0  0  0
 14 21  1  0  0  0  0
 14 27  1  0  0  0  0
 15 18  1  0  0  0  0
 15 30  1  0  0  0  0
 16 17  1  0  0  0  0
 16 28  1  0  0  0  0
 16 45  1  0  0  0  0
 17 20  1  0  0  0  0
 17 26  1  0  0  0  0
 17 29  1  0  0  0  0
 18 23  1  0  0  0  0
 18 25  1  0  0  0  0
 18 46  1  0  0  0  0
 19 23  1  0  0  0  0
 19 47  1  0  0  0  0
 20 22  1  0  0  0  0
 20 24  1  0  0  0  0
 20 48  1  0  0  0  0
 21 22  1  0  0  0  0
 21 49  1  0  0  0  0
 22 50  1  0  0  0  0
 23 51  1  0  0  0  0
 23 52  1  0  0  0  0
 24 31  1  0  0  0  0
 24 33  1  0  0  0  0
 24 35  1  0  0  0  0
 25 32  1  0  0  0  0
 25 36  1  0  0  0  0
 26 34  1  0  0  0  0
 26 53  1  0  0  0  0
 27 54  1  0  0  0  0
 27 55  1  0  0  0  0
 27 56  1  0  0  0  0
 28 57  1  0  0  0  0
 29 58  1  0  0  0  0
 29 59  1  0  0  0  0
 30 60  1  0  0  0  0
 30 61  1  0  0  0  0
 30 62  1  0  0  0  0
 31 34  1  0  0  0  0
 31 63  1  0  0  0  0
 32 64  1  0  0  0  0
 33 65  1  0  0  0  0
 33 66  1  0  0  0  0
 34 67  1  0  0  0  0
 34 68  1  0  0  0  0
 35 69  1  0  0  0  0
 35 70  1  0  0  0  0
 35 71  1  0  0  0  0
 36 37  2  0  0  0  0
 36 73  1  0  0  0  0
 37 76  1  0  0  0  0
 38 40  1  0  0  0  0
 39 41  1  0  0  0  0
 40 42  1  0  0  0  0
 40 43  2  0  0  0  0
 41 77  1  0  0  0  0
 41 78  1  0  0  0  0
 41 79  1  0  0  0  0
 42 80  1  0  0  0  0
 42 81  1  0  0  0  0
 42 82  1  0  0  0  0
 43 44  1  0  0  0  0
 43 83  1  0  0  0  0
 44 84  1  0  0  0  0
 44 85  1  0  0  0  0
 44 86  1  0  0  0  0
M  END
> <PUBCHEM_COMPOUND_CID>
76309325

> <PUBCHEM_CONFORMER_RMSD>
1.2

> <PUBCHEM_CONFORMER_DIVERSEORDER>
1

> <PUBCHEM_MMFF94_PARTIAL_CHARGES>
42
1 -0.3
10 -0.43
11 -0.57
12 -0.57
13 -0.04
14 0.09
15 -0.04
18 0.09
19 0.38
2 -0.56
21 0.28
22 0.28
25 0.42
26 0.28
28 0.56
29 0.28
3 -0.56
30 0.09
31 0.28
32 0.56
33 0.28
36 -0.29
37 -0.07
38 0.71
39 0.66
4 -0.56
40 -0.12
41 0.06
42 0.14
43 -0.29
44 0.14
5 -0.68
6 -0.43
7 -0.68
72 0.4
73 0.15
74 0.4
75 0.4
76 0.15
8 -0.68
83 0.15
9 -0.36

> <PUBCHEM_EFFECTIVE_ROTOR_COUNT>
8.8

> <PUBCHEM_PHARMACOPHORE_FEATURES>
22
1 1 acceptor
1 11 acceptor
1 12 acceptor
1 2 acceptor
1 3 acceptor
1 4 acceptor
1 42 hydrophobe
1 44 hydrophobe
1 5 acceptor
1 5 donor
1 7 acceptor
1 7 donor
1 8 acceptor
1 8 donor
1 9 acceptor
5 3 20 22 24 33 rings
5 4 16 17 28 29 rings
5 9 25 32 36 37 rings
6 1 13 15 18 19 23 rings
6 14 16 17 20 21 22 rings
6 17 20 24 26 31 34 rings
8 2 13 15 18 19 23 25 32 rings

> <PUBCHEM_HEAVY_ATOM_COUNT>
44

> <PUBCHEM_ATOM_DEF_STEREO_COUNT>
16

> <PUBCHEM_ATOM_UDEF_STEREO_COUNT>
0

> <PUBCHEM_BOND_DEF_STEREO_COUNT>
1

> <PUBCHEM_BOND_UDEF_STEREO_COUNT>
0

> <PUBCHEM_ISOTOPIC_ATOM_COUNT>
0

> <PUBCHEM_COMPONENT_COUNT>
1

> <PUBCHEM_CACTVS_TAUTO_COUNT>
1

> <PUBCHEM_CONFORMER_ID>
048C634D00000001

> <PUBCHEM_MMFF94_ENERGY>
249.9279

> <PUBCHEM_FEATURE_SELFOVERLAP>
115.665

> <PUBCHEM_SHAPE_FINGERPRINT>
10165383 225 18114478846088646028
11456790 92 17896044234795609313
11479125 193 18196347403302953413
11578080 2 18266751345058471659
11763715 3 17763770705330535014
11796584 16 12468653706811185233
12107698 1 18271527502819997944
12166972 35 18201440221113736674
12422481 6 17095795616114511159
12608794 3 18042386050187945410
12633257 1 18187085053305002646
13583140 156 18336560334522130299
13617811 41 16056875811293873569
13636023 51 17313110791152692468
13726171 33 17488197061625074961
13782708 43 17749677281160291474
13811026 1 17095798798907388930
14705955 166 17459172015709453100
14849402 71 18410575115546125236
14955137 171 18339928113453779910
15082195 135 17560816445384664172
17349148 13 16950860141151910871
20511986 3 18265886966000549191
21223535 225 17097200646768776733
21716022 299 14403525809703867422
21792965 20 16155645970738795818
22149856 69 17679052412179102785
22223350 30 17749681808087334098
23559900 14 17458925759722421835
244849 19 17750773498690310461
392239 28 18410301315306103755
4112364 45 18343018925832045825
4149490 64 18261113015641391963
56638632 10 18337936936434707520
6086070 43 18338249257634104558
6669772 16 18339642372883610409
7288768 16 18051968414277634268

> <PUBCHEM_SHAPE_MULTIPOLES>
835.07
13.7
4.18
2.49
11.16
3.45
0.56
5.48
-3.81
-8.44
-0.85
-0.09
-0.39
-0.23

> <PUBCHEM_SHAPE_SELFOVERLAP>
1864.241

> <PUBCHEM_SHAPE_VOLUME>
434.8

> <PUBCHEM_COORDINATE_TYPE>
2
5
10

$$$$
