76323911
  -OEChem-11132409433D

 92 99  0     1  0  0  0  0  0999 V2000
   -2.5367   -2.3761    1.6481 O   0  0  0  0  0  0  0  0  0  0  0  0
   -2.1466    1.1157    0.5694 O   0  0  0  0  0  0  0  0  0  0  0  0
    1.3953   -3.9735    0.8896 O   0  0  0  0  0  0  0  0  0  0  0  0
   -0.0912   -0.4452   -3.1705 O   0  0  0  0  0  0  0  0  0  0  0  0
   -1.4576   -4.0099    0.5146 O   0  0  0  0  0  0  0  0  0  0  0  0
    2.0152    1.0999    0.0855 O   0  0  0  0  0  0  0  0  0  0  0  0
   -2.1760    0.4256   -2.4371 O   0  0  0  0  0  0  0  0  0  0  0  0
   -5.7427    0.2353    0.1281 O   0  0  0  0  0  0  0  0  0  0  0  0
   -3.7633    2.6389   -0.1889 O   0  0  0  0  0  0  0  0  0  0  0  0
    4.0751   -0.8388    1.1269 O   0  0  0  0  0  0  0  0  0  0  0  0
   -0.0544    2.0907   -3.4445 O   0  0  0  0  0  0  0  0  0  0  0  0
   -0.3224    2.4234   -1.1743 O   0  0  0  0  0  0  0  0  0  0  0  0
    2.8933    2.8881   -1.0686 O   0  0  0  0  0  0  0  0  0  0  0  0
    6.2974   -0.3924    0.6811 O   0  0  0  0  0  0  0  0  0  0  0  0
   -2.2037   -1.2862    0.8138 C   0  0  1  0  0  0  0  0  0  0  0  0
   -1.4409   -1.7101   -0.4539 C   0  0  1  0  0  0  0  0  0  0  0  0
   -3.6104   -1.6305    1.0414 C   0  0  2  0  0  0  0  0  0  0  0  0
   -0.4724   -0.4450   -0.8390 C   0  0  1  0  0  0  0  0  0  0  0  0
    1.0104   -0.8543   -1.0799 C   0  0  2  0  0  0  0  0  0  0  0  0
   -1.8977    0.0130    1.4489 C   0  0  2  0  0  0  0  0  0  0  0  0
   -4.1635   -0.4549    1.8498 C   0  0  1  0  0  0  0  0  0  0  0  0
    1.4883   -1.7848    0.0383 C   0  0  1  0  0  0  0  0  0  0  0  0
   -0.6527   -3.0493   -0.1761 C   0  0  1  0  0  0  0  0  0  0  0  0
    0.5747   -2.8121    0.6610 C   0  0  1  0  0  0  0  0  0  0  0  0
   -2.9150    0.0633    2.5984 C   0  0  0  0  0  0  0  0  0  0  0  0
    2.8264   -2.4881   -0.1976 C   0  0  1  0  0  0  0  0  0  0  0  0
   -0.7944    0.2751   -2.1626 C   0  0  1  0  0  0  0  0  0  0  0  0
    2.1068    0.2894   -1.0895 C   0  0  2  0  0  0  0  0  0  0  0  0
   -4.6276    0.6709    0.9039 C   0  0  1  0  0  0  0  0  0  0  0  0
   -2.5208   -2.0762   -1.5081 C   0  0  0  0  0  0  0  0  0  0  0  0
    0.8636   -1.3310   -2.5358 C   0  0  0  0  0  0  0  0  0  0  0  0
   -4.4655   -2.4565    0.1493 C   0  0  0  0  0  0  0  0  0  0  0  0
    3.9195   -1.4041   -0.1743 C   0  0  1  0  0  0  0  0  0  0  0  0
   -3.4749    1.2294    0.0225 C   0  0  2  0  0  0  0  0  0  0  0  0
    2.7616   -3.4895    0.9567 C   0  0  0  0  0  0  0  0  0  0  0  0
    3.5749   -0.2460   -1.1505 C   0  0  0  0  0  0  0  0  0  0  0  0
    2.9398   -3.3238   -1.4911 C   0  0  0  0  0  0  0  0  0  0  0  0
   -5.0865    1.9312    1.5533 C   0  0  0  0  0  0  0  0  0  0  0  0
   -0.3695    1.7165   -2.1718 C   0  0  0  0  0  0  0  0  0  0  0  0
   -4.5775    2.9552    0.8781 C   0  0  0  0  0  0  0  0  0  0  0  0
    2.4456    2.3849   -0.0481 C   0  0  0  0  0  0  0  0  0  0  0  0
    5.3230   -0.3701    1.4209 C   0  0  0  0  0  0  0  0  0  0  0  0
    0.3699    3.4487   -3.5989 C   0  0  0  0  0  0  0  0  0  0  0  0
    2.2941    3.0989    1.2560 C   0  0  0  0  0  0  0  0  0  0  0  0
    5.3372    0.1906    2.8107 C   0  0  0  0  0  0  0  0  0  0  0  0
    1.6954    2.3523    2.4111 C   0  0  0  0  0  0  0  0  0  0  0  0
    2.6889    4.3855    1.2704 C   0  0  0  0  0  0  0  0  0  0  0  0
    2.6671    5.3261    2.4334 C   0  0  0  0  0  0  0  0  0  0  0  0
   -0.3391    0.2666   -0.0416 H   0  0  0  0  0  0  0  0  0  0  0  0
   -0.8893    0.0794    1.8711 H   0  0  0  0  0  0  0  0  0  0  0  0
   -4.9528   -0.7797    2.5354 H   0  0  0  0  0  0  0  0  0  0  0  0
    1.6373   -1.1139    0.9022 H   0  0  0  0  0  0  0  0  0  0  0  0
   -0.3580   -3.5333   -1.1126 H   0  0  0  0  0  0  0  0  0  0  0  0
    0.2624   -2.4852    1.6625 H   0  0  0  0  0  0  0  0  0  0  0  0
   -3.0366    1.0637    3.0229 H   0  0  0  0  0  0  0  0  0  0  0  0
   -2.6367   -0.6220    3.4086 H   0  0  0  0  0  0  0  0  0  0  0  0
    1.9751    0.9126   -1.9798 H   0  0  0  0  0  0  0  0  0  0  0  0
   -2.0211   -2.1130   -2.4867 H   0  0  0  0  0  0  0  0  0  0  0  0
   -3.3065   -1.3387   -1.6428 H   0  0  0  0  0  0  0  0  0  0  0  0
   -2.8948   -3.0976   -1.4596 H   0  0  0  0  0  0  0  0  0  0  0  0
    1.7796   -1.2681   -3.1263 H   0  0  0  0  0  0  0  0  0  0  0  0
    0.4745   -2.3454   -2.6336 H   0  0  0  0  0  0  0  0  0  0  0  0
   -4.0932   -3.4679   -0.0298 H   0  0  0  0  0  0  0  0  0  0  0  0
   -4.8588   -1.9733   -0.7456 H   0  0  0  0  0  0  0  0  0  0  0  0
   -5.3808   -2.6591    0.7266 H   0  0  0  0  0  0  0  0  0  0  0  0
    4.8643   -1.8694   -0.4849 H   0  0  0  0  0  0  0  0  0  0  0  0
   -3.5526    0.7521   -0.9423 H   0  0  0  0  0  0  0  0  0  0  0  0
    3.4482   -4.3350    0.8553 H   0  0  0  0  0  0  0  0  0  0  0  0
    2.9165   -3.0303    1.9400 H   0  0  0  0  0  0  0  0  0  0  0  0
    3.7639   -0.5937   -2.1725 H   0  0  0  0  0  0  0  0  0  0  0  0
    4.2711    0.5833   -0.9788 H   0  0  0  0  0  0  0  0  0  0  0  0
    3.1140   -2.7207   -2.3825 H   0  0  0  0  0  0  0  0  0  0  0  0
    2.0523   -3.9401   -1.6659 H   0  0  0  0  0  0  0  0  0  0  0  0
    3.7980   -4.0045   -1.4275 H   0  0  0  0  0  0  0  0  0  0  0  0
   -2.0169   -4.4586   -0.1406 H   0  0  0  0  0  0  0  0  0  0  0  0
   -5.7768    2.0045    2.3794 H   0  0  0  0  0  0  0  0  0  0  0  0
   -2.2732    0.9367   -3.2588 H   0  0  0  0  0  0  0  0  0  0  0  0
   -6.4050   -0.1388    0.7345 H   0  0  0  0  0  0  0  0  0  0  0  0
   -4.7566    4.0056    1.0200 H   0  0  0  0  0  0  0  0  0  0  0  0
    0.4380    3.6623   -4.6689 H   0  0  0  0  0  0  0  0  0  0  0  0
    1.3573    3.5851   -3.1514 H   0  0  0  0  0  0  0  0  0  0  0  0
   -0.3562    4.1354   -3.1528 H   0  0  0  0  0  0  0  0  0  0  0  0
    4.7996    1.1410    2.8299 H   0  0  0  0  0  0  0  0  0  0  0  0
    6.3721    0.3589    3.1221 H   0  0  0  0  0  0  0  0  0  0  0  0
    4.8853   -0.5213    3.5066 H   0  0  0  0  0  0  0  0  0  0  0  0
    0.6795    2.0270    2.1632 H   0  0  0  0  0  0  0  0  0  0  0  0
    2.2945    1.4670    2.6483 H   0  0  0  0  0  0  0  0  0  0  0  0
    1.6240    2.9418    3.3266 H   0  0  0  0  0  0  0  0  0  0  0  0
    3.0933    4.8358    0.3655 H   0  0  0  0  0  0  0  0  0  0  0  0
    2.3274    4.8774    3.3677 H   0  0  0  0  0  0  0  0  0  0  0  0
    2.0104    6.1723    2.2080 H   0  0  0  0  0  0  0  0  0  0  0  0
    3.6754    5.7172    2.6042 H   0  0  0  0  0  0  0  0  0  0  0  0
  1 15  1  0  0  0  0
  1 17  1  0  0  0  0
  2 20  1  0  0  0  0
  2 34  1  0  0  0  0
  3 24  1  0  0  0  0
  3 35  1  0  0  0  0
  4 27  1  0  0  0  0
  4 31  1  0  0  0  0
  5 23  1  0  0  0  0
  5 75  1  0  0  0  0
  6 28  1  0  0  0  0
  6 41  1  0  0  0  0
  7 27  1  0  0  0  0
  7 77  1  0  0  0  0
  8 29  1  0  0  0  0
  8 78  1  0  0  0  0
  9 34  1  0  0  0  0
  9 40  1  0  0  0  0
 10 33  1  0  0  0  0
 10 42  1  0  0  0  0
 11 39  1  0  0  0  0
 11 43  1  0  0  0  0
 12 39  2  0  0  0  0
 13 41  2  0  0  0  0
 14 42  2  0  0  0  0
 15 16  1  0  0  0  0
 15 17  1  0  0  0  0
 15 20  1  0  0  0  0
 16 18  1  0  0  0  0
 16 23  1  0  0  0  0
 16 30  1  0  0  0  0
 17 21  1  0  0  0  0
 17 32  1  0  0  0  0
 18 19  1  0  0  0  0
 18 27  1  0  0  0  0
 18 49  1  0  0  0  0
 19 22  1  0  0  0  0
 19 28  1  0  0  0  0
 19 31  1  0  0  0  0
 20 25  1  0  0  0  0
 20 50  1  0  0  0  0
 21 25  1  0  0  0  0
 21 29  1  0  0  0  0
 21 51  1  0  0  0  0
 22 24  1  0  0  0  0
 22 26  1  0  0  0  0
 22 52  1  0  0  0  0
 23 24  1  0  0  0  0
 23 53  1  0  0  0  0
 24 54  1  0  0  0  0
 25 55  1  0  0  0  0
 25 56  1  0  0  0  0
 26 33  1  0  0  0  0
 26 35  1  0  0  0  0
 26 37  1  0  0  0  0
 27 39  1  0  0  0  0
 28 36  1  0  0  0  0
 28 57  1  0  0  0  0
 29 34  1  0  0  0  0
 29 38  1  0  0  0  0
 30 58  1  0  0  0  0
 30 59  1  0  0  0  0
 30 60  1  0  0  0  0
 31 61  1  0  0  0  0
 31 62  1  0  0  0  0
 32 63  1  0  0  0  0
 32 64  1  0  0  0  0
 32 65  1  0  0  0  0
 33 36  1  0  0  0  0
 33 66  1  0  0  0  0
 34 67  1  0  0  0  0
 35 68  1  0  0  0  0
 35 69  1  0  0  0  0
 36 70  1  0  0  0  0
 36 71  1  0  0  0  0
 37 72  1  0  0  0  0
 37 73  1  0  0  0  0
 37 74  1  0  0  0  0
 38 40  2  0  0  0  0
 38 76  1  0  0  0  0
 40 79  1  0  0  0  0
 41 44  1  0  0  0  0
 42 45  1  0  0  0  0
 43 80  1  0  0  0  0
 43 81  1  0  0  0  0
 43 82  1  0  0  0  0
 44 46  1  0  0  0  0
 44 47  2  0  0  0  0
 45 83  1  0  0  0  0
 45 84  1  0  0  0  0
 45 85  1  0  0  0  0
 46 86  1  0  0  0  0
 46 87  1  0  0  0  0
 46 88  1  0  0  0  0
 47 48  1  0  0  0  0
 47 89  1  0  0  0  0
 48 90  1  0  0  0  0
 48 91  1  0  0  0  0
 48 92  1  0  0  0  0
M  END
> <PUBCHEM_COMPOUND_CID>
76323911

> <PUBCHEM_CONFORMER_RMSD>
1.2

> <PUBCHEM_CONFORMER_DIVERSEORDER>
1

> <PUBCHEM_MMFF94_PARTIAL_CHARGES>
46
1 -0.3
10 -0.43
11 -0.43
12 -0.57
13 -0.57
14 -0.57
15 -0.04
16 0.09
17 -0.04
2 -0.56
20 0.38
21 0.09
23 0.28
24 0.28
27 0.62
28 0.28
29 0.42
3 -0.56
31 0.28
32 0.09
33 0.28
34 0.56
35 0.28
38 -0.29
39 0.66
4 -0.56
40 -0.07
41 0.71
42 0.66
43 0.28
44 -0.12
45 0.06
46 0.14
47 -0.29
48 0.14
5 -0.68
6 -0.43
7 -0.68
75 0.4
76 0.15
77 0.4
78 0.4
79 0.15
8 -0.68
89 0.15
9 -0.36

> <PUBCHEM_EFFECTIVE_ROTOR_COUNT>
10.8

> <PUBCHEM_PHARMACOPHORE_FEATURES>
23
1 1 acceptor
1 12 acceptor
1 13 acceptor
1 14 acceptor
1 2 acceptor
1 3 acceptor
1 4 acceptor
1 46 hydrophobe
1 48 hydrophobe
1 5 acceptor
1 5 donor
1 7 acceptor
1 7 donor
1 8 acceptor
1 8 donor
1 9 acceptor
5 3 22 24 26 35 rings
5 4 18 19 27 31 rings
5 9 29 34 38 40 rings
6 1 15 17 20 21 25 rings
6 16 18 19 22 23 24 rings
6 19 22 26 28 33 36 rings
8 2 15 17 20 21 25 29 34 rings

> <PUBCHEM_HEAVY_ATOM_COUNT>
48

> <PUBCHEM_ATOM_DEF_STEREO_COUNT>
16

> <PUBCHEM_ATOM_UDEF_STEREO_COUNT>
0

> <PUBCHEM_BOND_DEF_STEREO_COUNT>
1

> <PUBCHEM_BOND_UDEF_STEREO_COUNT>
0

> <PUBCHEM_ISOTOPIC_ATOM_COUNT>
0

> <PUBCHEM_COMPONENT_COUNT>
1

> <PUBCHEM_CACTVS_TAUTO_COUNT>
1

> <PUBCHEM_CONFORMER_ID>
048C9C4700000001

> <PUBCHEM_MMFF94_ENERGY>
258.4658

> <PUBCHEM_FEATURE_SELFOVERLAP>
120.786

> <PUBCHEM_SHAPE_FINGERPRINT>
10439779 11 18339922597945691161
11456790 92 17902531293992716801
12156800 1 16401172247618287078
12422481 6 17677610856775045938
12608794 3 18264465404333420442
12633257 1 18407762534093346864
12788726 201 15739691277734385894
13140716 1 18265891535465703622
13583140 156 18341342140756345531
13811026 1 18113617868660120063
14068700 675 18193829577704950471
14955137 171 18343868806040374768
16112460 7 18268982250157117768
17974551 9 18261407658064315371
20739085 24 18041004002578142308
20764821 26 18335419105681946428
21033648 29 18338810996185202835
23559900 14 18187379743895940205
35225 105 17341812588053642961
392239 28 18342181111157061707
469060 322 18187070772006279550
56638632 10 18341597205910730824
57527306 92 17488461871722871864
6086070 43 18341612556234493127

> <PUBCHEM_SHAPE_MULTIPOLES>
905.65
9.7
5.55
3.03
0.99
3.22
2.02
1.63
-6.48
-3.23
-1.56
-0.72
2.03
0.89

> <PUBCHEM_SHAPE_SELFOVERLAP>
2016.644

> <PUBCHEM_SHAPE_VOLUME>
474

> <PUBCHEM_COORDINATE_TYPE>
2
5
10

$$$$
