
     RDKit          3D

 54 53  0  0  0  0  0  0  0  0999 V2000
    7.8604   -0.5765    1.6482 O   0  0  0  0  0  0  0  0  0  0  0  0
    7.0020    0.4584    1.7419 C   0  0  0  0  0  0  0  0  0  0  0  0
    7.1073    1.4169    0.9968 O   0  0  0  0  0  0  0  0  0  0  0  0
    6.0069    0.2636    2.8554 C   0  0  0  0  0  0  0  0  0  0  0  0
    4.7813    1.1714    2.7432 C   0  0  0  0  0  0  0  0  0  0  0  0
    3.6447    0.5962    1.8890 C   0  0  0  0  0  0  0  0  0  0  0  0
    3.9923    0.4395    0.4083 C   0  0  0  0  0  0  0  0  0  0  0  0
    2.7741   -0.0121   -0.4018 C   0  0  0  0  0  0  0  0  0  0  0  0
    3.1240   -0.1758   -1.8841 C   0  0  0  0  0  0  0  0  0  0  0  0
    1.9159   -0.5534   -2.7462 C   0  0  0  0  0  0  0  0  0  0  0  0
    1.3997   -1.9357   -2.4596 C   0  0  0  0  0  0  0  0  0  0  0  0
    0.2276   -2.2688   -1.8951 C   0  0  0  0  0  0  0  0  0  0  0  0
   -0.8264   -1.3379   -1.3642 C   0  0  0  0  0  0  0  0  0  0  0  0
   -2.0696   -1.3475   -2.2561 C   0  0  0  0  0  0  0  0  0  0  0  0
   -3.1389   -0.3421   -1.8178 C   0  0  0  0  0  0  0  0  0  0  0  0
   -3.7551   -0.6648   -0.4547 C   0  0  0  0  0  0  0  0  0  0  0  0
   -4.8935    0.3026   -0.1182 C   0  0  0  0  0  0  0  0  0  0  0  0
   -5.5092   -0.0194    1.2454 C   0  0  0  0  0  0  0  0  0  0  0  0
   -6.5823    0.9819    1.6778 C   0  0  0  0  0  0  0  0  0  0  0  0
   -7.8194    0.9666    0.7933 C   0  0  0  0  0  0  0  0  0  0  0  0
    8.4562   -0.3230    0.9124 H   0  0  0  0  0  0  0  0  0  0  0  0
    5.6975   -0.7868    2.8871 H   0  0  0  0  0  0  0  0  0  0  0  0
    6.5368    0.4926    3.7874 H   0  0  0  0  0  0  0  0  0  0  0  0
    5.0574    2.1653    2.3721 H   0  0  0  0  0  0  0  0  0  0  0  0
    4.3807    1.3186    3.7544 H   0  0  0  0  0  0  0  0  0  0  0  0
    3.3349   -0.3732    2.2985 H   0  0  0  0  0  0  0  0  0  0  0  0
    2.7799    1.2650    1.9837 H   0  0  0  0  0  0  0  0  0  0  0  0
    4.3609    1.3936    0.0133 H   0  0  0  0  0  0  0  0  0  0  0  0
    4.7917   -0.2995    0.2875 H   0  0  0  0  0  0  0  0  0  0  0  0
    2.4031   -0.9601    0.0047 H   0  0  0  0  0  0  0  0  0  0  0  0
    1.9688    0.7247   -0.2950 H   0  0  0  0  0  0  0  0  0  0  0  0
    3.5342    0.7691   -2.2618 H   0  0  0  0  0  0  0  0  0  0  0  0
    3.9135   -0.9295   -1.9970 H   0  0  0  0  0  0  0  0  0  0  0  0
    2.2181   -0.5264   -3.8007 H   0  0  0  0  0  0  0  0  0  0  0  0
    1.1344    0.2060   -2.6424 H   0  0  0  0  0  0  0  0  0  0  0  0
    2.0569   -2.7467   -2.7729 H   0  0  0  0  0  0  0  0  0  0  0  0
    0.0055   -3.3298   -1.7818 H   0  0  0  0  0  0  0  0  0  0  0  0
   -1.0828   -1.6716   -0.3523 H   0  0  0  0  0  0  0  0  0  0  0  0
   -0.4482   -0.3161   -1.2615 H   0  0  0  0  0  0  0  0  0  0  0  0
   -1.7773   -1.1048   -3.2861 H   0  0  0  0  0  0  0  0  0  0  0  0
   -2.5039   -2.3549   -2.2831 H   0  0  0  0  0  0  0  0  0  0  0  0
   -2.7095    0.6670   -1.8007 H   0  0  0  0  0  0  0  0  0  0  0  0
   -3.9314   -0.3348   -2.5765 H   0  0  0  0  0  0  0  0  0  0  0  0
   -4.1365   -1.6930   -0.4572 H   0  0  0  0  0  0  0  0  0  0  0  0
   -2.9900   -0.6027    0.3272 H   0  0  0  0  0  0  0  0  0  0  0  0
   -4.5121    1.3308   -0.1162 H   0  0  0  0  0  0  0  0  0  0  0  0
   -5.6593    0.2407   -0.8994 H   0  0  0  0  0  0  0  0  0  0  0  0
   -4.7174   -0.0214    2.0048 H   0  0  0  0  0  0  0  0  0  0  0  0
   -5.9344   -1.0304    1.2301 H   0  0  0  0  0  0  0  0  0  0  0  0
   -6.8858    0.7433    2.7042 H   0  0  0  0  0  0  0  0  0  0  0  0
   -6.1617    1.9940    1.6993 H   0  0  0  0  0  0  0  0  0  0  0  0
   -8.5856    1.6293    1.2082 H   0  0  0  0  0  0  0  0  0  0  0  0
   -8.2428   -0.0405    0.7268 H   0  0  0  0  0  0  0  0  0  0  0  0
   -7.5937    1.3155   -0.2186 H   0  0  0  0  0  0  0  0  0  0  0  0
  1  2  1  0
  2  3  2  0
  2  4  1  0
  4  5  1  0
  5  6  1  0
  6  7  1  0
  7  8  1  0
  8  9  1  0
  9 10  1  0
 10 11  1  0
 11 12  2  0
 12 13  1  0
 13 14  1  0
 14 15  1  0
 15 16  1  0
 16 17  1  0
 17 18  1  0
 18 19  1  0
 19 20  1  0
  1 21  1  0
  4 22  1  0
  4 23  1  0
  5 24  1  0
  5 25  1  0
  6 26  1  0
  6 27  1  0
  7 28  1  0
  7 29  1  0
  8 30  1  0
  8 31  1  0
  9 32  1  0
  9 33  1  0
 10 34  1  0
 10 35  1  0
 11 36  1  0
 12 37  1  0
 13 38  1  0
 13 39  1  0
 14 40  1  0
 14 41  1  0
 15 42  1  0
 15 43  1  0
 16 44  1  0
 16 45  1  0
 17 46  1  0
 17 47  1  0
 18 48  1  0
 18 49  1  0
 19 50  1  0
 19 51  1  0
 20 52  1  0
 20 53  1  0
 20 54  1  0
M  END
$$$$
