
     RDKit          3D

 25 25  0  0  0  0  0  0  0  0999 V2000
   -1.9236   -2.3322   -1.0280 O   0  0  0  0  0  0  0  0  0  0  0  0
   -2.1754   -1.5294    0.0252 C   0  0  0  0  0  0  0  0  0  0  0  0
   -3.2373   -1.6223    0.6225 O   0  0  0  0  0  0  0  0  0  0  0  0
   -1.0627   -0.5106    0.3159 C   0  0  2  0  0  0  0  0  0  0  0  0
   -1.2955    0.0693    1.6034 O   0  0  0  0  0  0  0  0  0  0  0  0
   -1.1031    0.5784   -0.7742 C   0  0  0  0  0  0  0  0  0  0  0  0
    0.0645    1.5620   -0.7041 C   0  0  1  0  0  0  0  0  0  0  0  0
   -0.1282    2.4595    0.3916 O   0  0  0  0  0  0  0  0  0  0  0  0
    1.4164    0.8534   -0.5705 C   0  0  1  0  0  0  0  0  0  0  0  0
    2.4341    1.8371   -0.3259 O   0  0  0  0  0  0  0  0  0  0  0  0
    1.4227   -0.1703    0.5721 C   0  0  2  0  0  0  0  0  0  0  0  0
    2.6953   -0.8328    0.5602 O   0  0  0  0  0  0  0  0  0  0  0  0
    0.3060   -1.1946    0.3891 C   0  0  0  0  0  0  0  0  0  0  0  0
   -2.7200   -2.9032   -1.0843 H   0  0  0  0  0  0  0  0  0  0  0  0
   -2.1663    0.5085    1.5759 H   0  0  0  0  0  0  0  0  0  0  0  0
   -1.0937    0.1045   -1.7641 H   0  0  0  0  0  0  0  0  0  0  0  0
   -2.0442    1.1374   -0.6902 H   0  0  0  0  0  0  0  0  0  0  0  0
    0.0704    2.1893   -1.6030 H   0  0  0  0  0  0  0  0  0  0  0  0
    0.7387    2.9001    0.5111 H   0  0  0  0  0  0  0  0  0  0  0  0
    1.6725    0.3572   -1.5147 H   0  0  0  0  0  0  0  0  0  0  0  0
    3.2307    1.3154   -0.0985 H   0  0  0  0  0  0  0  0  0  0  0  0
    1.3455    0.3402    1.5393 H   0  0  0  0  0  0  0  0  0  0  0  0
    2.7128   -1.4215    1.3368 H   0  0  0  0  0  0  0  0  0  0  0  0
    0.5053   -1.7901   -0.5113 H   0  0  0  0  0  0  0  0  0  0  0  0
    0.3350   -1.9054    1.2255 H   0  0  0  0  0  0  0  0  0  0  0  0
  1  2  1  0
  2  3  2  0
  2  4  1  0
  4  5  1  1
  4  6  1  0
  6  7  1  0
  7  8  1  0
  7  9  1  0
  9 10  1  0
  9 11  1  0
 11 12  1  0
 11 13  1  0
 13  4  1  0
  1 14  1  0
  5 15  1  0
  6 16  1  0
  6 17  1  0
  7 18  1  6
  8 19  1  0
  9 20  1  6
 10 21  1  0
 11 22  1  1
 12 23  1  0
 13 24  1  0
 13 25  1  0
M  END
$$$$
